34

C	-8.013551	1.6069642	0.21964228
C	-7.290417	2.7958786	0.096560776
C	-5.919593	2.7706144	-0.024934685
C	-5.1979523	1.5455557	-0.029300066
C	-5.957451	0.35015166	0.09720398
C	-7.3304734	0.39035165	0.21811911
C	-3.7792897	1.5715818	-0.15750952
C	-2.920722	0.4830853	-0.17739247
C	-1.5305855	0.5842099	-0.3072941
C	-0.66154605	-0.5033969	-0.32795954
C	0.7285672	-0.40208617	-0.45786494
C	1.5874587	-1.4903415	-0.4777905
C	3.0061235	-1.464094	-0.60600495
C	3.7655063	-0.26862806	-0.73244226
C	5.138557	-0.30869183	-0.8533613
C	5.821766	-1.525156	-0.8549518
C	5.0987535	-2.714186	-0.7319321
C	3.7279463	-2.6890998	-0.61043704
H	-9.091329	1.6290095	0.31498897
H	-7.81081	3.7457926	0.096538775
H	-5.3720794	3.7001321	-0.1195374
H	-5.4600596	-0.60898185	0.099293284
H	-7.8834424	-0.5362	0.31285244
H	-3.3291135	2.5541184	-0.24893469
H	-3.3319287	-0.5154008	-0.087957375
H	-1.1012019	1.577582	-0.39806125
H	-1.0909162	-1.4967766	-0.23719446
H	1.1394502	0.596545	-0.5472782
H	1.137565	-2.4730222	-0.3863941
H	3.2681108	0.69050044	-0.73448795
H	5.6913443	0.6179769	-0.948044
H	5.6192765	-3.6640272	-0.73196363
H	3.1804934	-3.618658	-0.51588345
H	6.899542	-1.5473013	-0.95028687
34

C	-8.012818	1.6075935	0.21951967
C	-7.289551	2.797851	0.096349105
C	-5.9203873	2.7739377	-0.02504038
C	-5.1957173	1.5470355	-0.029544162
C	-5.9573355	0.34993738	0.09724773
C	-7.329285	0.39055482	0.21801633
C	-3.7829647	1.5729413	-0.15719815
C	-2.9205635	0.47920677	-0.1771983
C	-1.5326458	0.58264893	-0.3070059
C	-0.66007644	-0.50420743	-0.32807133
C	0.7277734	-0.4001149	-0.45790294
C	1.591243	-1.4930052	-0.47804412
C	3.0039787	-1.4657806	-0.6057582
C	3.7646341	-0.26806107	-0.7324374
C	5.136638	-0.30753273	-0.8532643
C	5.821239	-1.5238874	-0.8549464
C	5.098947	-2.714773	-0.73188686
C	3.7298033	-2.6920567	-0.6104453
H	-9.090563	1.6294315	0.31485307
H	-7.8109956	3.747208	0.0964213
H	-5.3730206	3.703519	-0.11964302
H	-5.459859	-0.60909647	0.099359274
H	-7.882579	-0.535818	0.3127774
H	-3.330525	2.5543787	-0.24870935
H	-3.3320658	-0.51898	-0.08780116
H	-1.1046803	1.5766573	-0.39762822
H	-1.087831	-1.4982959	-0.23746501
H	1.1385101	0.59841245	-0.5472489
H	1.1397991	-2.474928	-0.3866081
H	3.266491	0.6906226	-0.7344272
H	5.6890297	0.6193927	-0.94793344
H	5.6211967	-3.6636782	-0.7320924
H	3.1831903	-3.6220846	-0.5159322
H	6.898989	-1.5450279	-0.9503103
34

C	-8.012086	1.6082228	0.21939705
C	-7.2886844	2.7998235	0.09613743
C	-5.921181	2.777261	-0.025146075
C	-5.193482	1.5485153	-0.029788258
C	-5.95722	0.34972313	0.09729148
C	-7.328097	0.39075795	0.21791355
C	-3.78664	1.5743009	-0.15688676
C	-2.9204051	0.47532824	-0.17700414
C	-1.5347061	0.58108795	-0.30671775
C	-0.6586068	-0.50501794	-0.3281831
C	0.7269797	-0.39814365	-0.45794094
C	1.5950273	-1.4956688	-0.47829777
C	3.0018342	-1.4674672	-0.6055114
C	3.7637618	-0.26749408	-0.7324324
C	5.1347194	-0.30637363	-0.8531672
C	5.820712	-1.5226187	-0.8549409
C	5.099141	-2.7153597	-0.7318416
C	3.7316604	-2.6950135	-0.61045367
H	-9.089797	1.6298536	0.31471714
H	-7.811181	3.7486236	0.09630383
H	-5.3739624	3.706906	-0.11974864
H	-5.459658	-0.6092111	0.09942526
H	-7.8817153	-0.535436	0.31270236
H	-3.3319364	2.5546393	-0.24848402
H	-3.3322031	-0.5225593	-0.08764494
H	-1.1081587	1.5757325	-0.3971952
H	-1.084746	-1.4998151	-0.23773557
H	1.13757	0.60028	-0.54721963
H	1.1420332	-2.4768338	-0.38682204
H	3.264871	0.6907448	-0.7343665
H	5.686715	0.6208085	-0.94782287
H	5.6231165	-3.6633291	-0.7322211
H	3.1858876	-3.6255114	-0.5159809
H	6.8984365	-1.5427544	-0.9503337
34

C	-8.0113535	1.6088523	0.21927445
C	-7.287818	2.801796	0.095925756
C	-5.9219756	2.7805843	-0.02525177
C	-5.191247	1.5499951	-0.030032353
C	-5.9571047	0.34950885	0.09733523
C	-7.3269086	0.3909611	0.21781076
C	-3.790315	1.5756603	-0.15657538
C	-2.9202466	0.4714497	-0.17680998
C	-1.5367663	0.579527	-0.30642956
C	-0.6571372	-0.5058284	-0.3282949
C	0.7261859	-0.39617237	-0.45797893
C	1.5988116	-1.4983324	-0.4785514
C	2.9996893	-1.4691538	-0.60526466
C	3.7628896	-0.26692712	-0.73242754
C	5.1328	-0.30521452	-0.85307014
C	5.820185	-1.52135	-0.85493547
C	5.0993347	-2.7159467	-0.7317964
C	3.7335174	-2.6979706	-0.61046195
H	-9.089031	1.6302756	0.31458125
H	-7.811367	3.7500393	0.096186355
H	-5.3749037	3.710293	-0.11985426
H	-5.459457	-0.60932565	0.09949125
H	-7.8808517	-0.535054	0.31262735
H	-3.3333476	2.5548997	-0.24825867
H	-3.3323402	-0.5261385	-0.08748872
H	-1.1116371	1.5748078	-0.3967622
H	-1.0816609	-1.5013344	-0.23800611
H	1.1366299	0.60214746	-0.5471903
H	1.1442674	-2.4787395	-0.38703603
H	3.263251	0.690867	-0.73430574
H	5.684401	0.62222433	-0.9477123
H	5.6250367	-3.66298	-0.7323499
H	3.1885846	-3.628938	-0.51602966
H	6.8978834	-1.540481	-0.95035714
34

C	-8.010621	1.6094816	0.21915182
C	-7.2869515	2.8037684	0.09571408
C	-5.92277	2.7839077	-0.025357464
C	-5.189012	1.5514749	-0.03027645
C	-5.9569893	0.3492946	0.09737898
C	-7.3257203	0.39116427	0.21770799
C	-3.7939901	1.5770198	-0.15626399
C	-2.9200883	0.46757117	-0.17661582
C	-1.5388266	0.57796603	-0.3061414
C	-0.6556676	-0.5066389	-0.3284067
C	0.72539216	-0.3942011	-0.45801693
C	1.6025959	-1.500996	-0.47880504
C	2.9975448	-1.4708403	-0.6050179
C	3.7620173	-0.26636013	-0.7324226
C	5.1308813	-0.30405542	-0.85297304
C	5.8196583	-1.5200813	-0.85493
C	5.099529	-2.7165337	-0.73175114
C	3.7353745	-2.7009275	-0.6104703
H	-9.088265	1.6306977	0.31444532
H	-7.8115525	3.7514548	0.09606888
H	-5.3758454	3.71368	-0.119959876
H	-5.459256	-0.60944027	0.09955724
H	-7.879988	-0.534672	0.3125523
H	-3.334759	2.55516	-0.24803333
H	-3.3324773	-0.52971774	-0.0873325
H	-1.1151155	1.5738829	-0.39632916
H	-1.0785757	-1.5028536	-0.23827668
H	1.1356899	0.60401493	-0.547161
H	1.1465015	-2.4806452	-0.38724998
H	3.261631	0.6909892	-0.734245
H	5.6820865	0.6236401	-0.94760174
H	5.6269565	-3.662631	-0.7324786
H	3.1912816	-3.6323645	-0.5160784
H	6.8973308	-1.5382075	-0.95038056
34

C	-8.009888	1.6101109	0.21902922
C	-7.286085	2.805741	0.09550241
C	-5.923564	2.7872312	-0.02546316
C	-5.1867766	1.5529547	-0.030520543
C	-5.9568734	0.34908032	0.09742273
C	-7.324532	0.3913674	0.2176052
C	-3.797665	1.5783794	-0.15595262
C	-2.9199297	0.46369267	-0.17642166
C	-1.5408869	0.57640505	-0.30585322
C	-0.65419805	-0.5074494	-0.3285185
C	0.72459835	-0.39222986	-0.45805493
C	1.6063802	-1.5036597	-0.47905865
C	2.9954	-1.472527	-0.6047711
C	3.761145	-0.26579314	-0.7324177
C	5.1289625	-0.3028963	-0.852876
C	5.819131	-1.5188127	-0.85492456
C	5.0997224	-2.7171204	-0.73170596
C	3.7372313	-2.7038844	-0.6104786
H	-9.0875	1.6311197	0.31430942
H	-7.811738	3.7528703	0.09595141
H	-5.3767867	3.7170668	-0.1200655
H	-5.4590554	-0.6095549	0.099623226
H	-7.879124	-0.53429	0.31247726
H	-3.3361704	2.5554206	-0.247808
H	-3.3326147	-0.53329694	-0.087176286
H	-1.118594	1.5729582	-0.39589614
H	-1.0754907	-1.504373	-0.23854722
H	1.1347497	0.60588247	-0.5471317
H	1.1487356	-2.482551	-0.38746396
H	3.2600112	0.6911113	-0.73418427
H	5.679772	0.6250559	-0.94749117
H	5.6288767	-3.6622822	-0.7326073
H	3.1939788	-3.6357913	-0.5161271
H	6.896778	-1.535934	-0.95040405
34

C	-8.009155	1.6107402	0.2189066
C	-7.2852187	2.8077135	0.09529073
C	-5.9243584	2.7905545	-0.025568854
C	-5.1845417	1.5544345	-0.03076464
C	-5.956758	0.34886608	0.097466476
C	-7.3233438	0.39157057	0.21750243
C	-3.8013403	1.5797389	-0.15564123
C	-2.9197714	0.45981413	-0.1762275
C	-1.5429472	0.57484406	-0.30556506
C	-0.65272844	-0.5082599	-0.3286303
C	0.7238046	-0.39025858	-0.45809293
C	1.6101645	-1.5063233	-0.4793123
C	2.9932554	-1.4742136	-0.6045243
C	3.7602727	-0.26522616	-0.73241276
C	5.1270437	-0.3017372	-0.8527789
C	5.818604	-1.5175439	-0.8549191
C	5.0999165	-2.7177074	-0.7316607
C	3.7390883	-2.7068412	-0.6104869
H	-9.086734	1.6315418	0.3141735
H	-7.8119235	3.7542858	0.095833935
H	-5.3777285	3.7204537	-0.12017112
H	-5.4588547	-0.6096695	0.099689215
H	-7.8782606	-0.533908	0.31240222
H	-3.3375819	2.555681	-0.24758266
H	-3.3327518	-0.5368762	-0.08702007
H	-1.1220725	1.5720334	-0.3954631
H	-1.0724056	-1.5058922	-0.23881778
H	1.1338096	0.60774994	-0.5471024
H	1.1509697	-2.4844568	-0.3876779
H	3.2583911	0.6912335	-0.7341235
H	5.6774573	0.6264717	-0.9473806
H	5.6307964	-3.6619332	-0.73273605
H	3.1966758	-3.6392179	-0.51617587
H	6.8962255	-1.5336605	-0.9504275
34

C	-8.008423	1.6113696	0.21878399
C	-7.2843523	2.809686	0.09507906
C	-5.925153	2.7938778	-0.02567455
C	-5.182307	1.5559143	-0.031008735
C	-5.9566426	0.3486518	0.097510226
C	-7.3221555	0.39177373	0.21739964
C	-3.8050153	1.5810983	-0.15532985
C	-2.919613	0.4559356	-0.17603333
C	-1.5450073	0.57328314	-0.30527687
C	-0.6512588	-0.50907034	-0.3287421
C	0.72301084	-0.3882873	-0.45813093
C	1.6139488	-1.508987	-0.47956592
C	2.9911106	-1.4759002	-0.60427755
C	3.7594006	-0.2646592	-0.73240787
C	5.1251245	-0.3005781	-0.8526819
C	5.818077	-1.5162753	-0.85491365
C	5.10011	-2.7182944	-0.7316155
C	3.7409453	-2.7097983	-0.6104952
H	-9.085968	1.6319638	0.3140376
H	-7.8121095	3.7557015	0.09571646
H	-5.3786697	3.7238407	-0.12027674
H	-5.4586535	-0.60978407	0.099755205
H	-7.877397	-0.53352606	0.3123272
H	-3.338993	2.5559413	-0.24735731
H	-3.3328888	-0.5404554	-0.086863846
H	-1.1255509	1.5711087	-0.3950301
H	-1.0693204	-1.5074115	-0.23908833
H	1.1328695	0.6096174	-0.54707307
H	1.153204	-2.4863625	-0.3878919
H	3.2567713	0.6913557	-0.7340628
H	5.6751432	0.62788755	-0.94727004
H	5.6327167	-3.6615841	-0.7328648
H	3.1993728	-3.6426444	-0.5162246
H	6.8956723	-1.5313871	-0.9504509
34

C	-8.00769	1.6119989	0.21866137
C	-7.283486	2.8116584	0.09486738
C	-5.9259467	2.7972012	-0.025780244
C	-5.1800714	1.5573941	-0.03125283
C	-5.956527	0.34843755	0.097553976
C	-7.320967	0.39197686	0.21729687
C	-3.8086905	1.5824579	-0.15501846
C	-2.9194546	0.45205706	-0.17583917
C	-1.5470676	0.57172215	-0.3049887
C	-0.6497892	-0.50988084	-0.32885388
C	0.7222171	-0.38631606	-0.45816892
C	1.6177331	-1.5116506	-0.47981957
C	2.988966	-1.4775867	-0.6040308
C	3.7585282	-0.2640922	-0.7324029
C	5.1232057	-0.299419	-0.8525848
C	5.81755	-1.5150065	-0.85490817
C	5.100304	-2.7188811	-0.73157024
C	3.7428024	-2.7127552	-0.61050355
H	-9.085202	1.632386	0.31390166
H	-7.812295	3.757117	0.09559899
H	-5.3796115	3.7272277	-0.12038236
H	-5.4584527	-0.6098987	0.099821195
H	-7.8765335	-0.53314406	0.31225216
H	-3.3404045	2.556202	-0.24713197
H	-3.3330262	-0.54403466	-0.08670763
H	-1.1290293	1.5701839	-0.39459708
H	-1.0662354	-1.5089307	-0.23935889
H	1.1319294	0.61148494	-0.5470438
H	1.1554381	-2.4882684	-0.38810584
H	3.2551513	0.6914779	-0.73400205
H	5.6728287	0.62930334	-0.94715947
H	5.6346364	-3.661235	-0.73299354
H	3.20207	-3.6460712	-0.5162733
H	6.8951197	-1.5291137	-0.9504743
34

C	-8.006958	1.6126282	0.21853876
C	-7.2826195	2.8136308	0.09465571
C	-5.926741	2.8005245	-0.02588594
C	-5.1778364	1.5588739	-0.031496927
C	-5.956412	0.34822327	0.097597726
C	-7.319779	0.39218003	0.21719408
C	-3.8123655	1.5838174	-0.15470709
C	-2.919296	0.44817853	-0.17564501
C	-1.5491279	0.57016116	-0.30470052
C	-0.6483196	-0.51069134	-0.32896566
C	0.7214233	-0.3843448	-0.45820692
C	1.6215174	-1.5143142	-0.48007318
C	2.9868212	-1.4792733	-0.603784
C	3.757656	-0.26352522	-0.73239803
C	5.121287	-0.29825988	-0.85248774
C	5.8170233	-1.5137379	-0.85490274
C	5.1004977	-2.719468	-0.731525
C	3.7446594	-2.715712	-0.61051184
H	-9.084436	1.632808	0.31376576
H	-7.8124804	3.7585325	0.095481515
H	-5.380553	3.7306147	-0.12048798
H	-5.458252	-0.6100133	0.099887185
H	-7.87567	-0.53276205	0.31217712
H	-3.341816	2.5564623	-0.24690664
H	-3.3331633	-0.54761386	-0.08655141
H	-1.1325077	1.5692592	-0.39416406
H	-1.0631503	-1.51045	-0.23962943
H	1.1309893	0.6133524	-0.5470145
H	1.1576722	-2.490174	-0.38831982
H	3.2535315	0.6916001	-0.7339413
H	5.670514	0.6307191	-0.9470489
H	5.6365566	-3.660886	-0.7331223
H	3.204767	-3.6494977	-0.5163221
H	6.894567	-1.5268402	-0.95049775
