34

C	-8.013551	1.6069642	0.21964228
C	-7.290417	2.7958786	0.096560776
C	-5.919593	2.7706144	-0.024934685
C	-5.1979523	1.5455557	-0.029300066
C	-5.957451	0.35015166	0.09720398
C	-7.3304734	0.39035165	0.21811911
C	-3.7792897	1.5715818	-0.15750952
C	-2.920722	0.4830853	-0.17739247
C	-1.5305855	0.5842099	-0.3072941
C	-0.66154605	-0.5033969	-0.32795954
C	0.7285672	-0.40208617	-0.45786494
C	1.5874587	-1.4903415	-0.4777905
C	3.0061235	-1.464094	-0.60600495
C	3.7655063	-0.26862806	-0.73244226
C	5.138557	-0.30869183	-0.8533613
C	5.821766	-1.525156	-0.8549518
C	5.0987535	-2.714186	-0.7319321
C	3.7279463	-2.6890998	-0.61043704
H	-9.091329	1.6290095	0.31498897
H	-7.81081	3.7457926	0.096538775
H	-5.3720794	3.7001321	-0.1195374
H	-5.4600596	-0.60898185	0.099293284
H	-7.8834424	-0.5362	0.31285244
H	-3.3291135	2.5541184	-0.24893469
H	-3.3319287	-0.5154008	-0.087957375
H	-1.1012019	1.577582	-0.39806125
H	-1.0909162	-1.4967766	-0.23719446
H	1.1394502	0.596545	-0.5472782
H	1.137565	-2.4730222	-0.3863941
H	3.2681108	0.69050044	-0.73448795
H	5.6913443	0.6179769	-0.948044
H	5.6192765	-3.6640272	-0.73196363
H	3.1804934	-3.618658	-0.51588345
H	6.899542	-1.5473013	-0.95028687
34

C	-8.016747	1.6099569	0.21978448
C	-7.2916136	2.7961757	0.096682
C	-5.9197288	2.7670524	-0.024725173
C	-5.2030787	1.5419012	-0.02867281
C	-5.963226	0.34972268	0.09770541
C	-7.336615	0.39200902	0.2185599
C	-3.7794304	1.5651904	-0.15720652
C	-2.924795	0.48009932	-0.17686342
C	-1.5285792	0.582142	-0.30738345
C	-0.66347575	-0.5010336	-0.32789305
C	0.7327229	-0.39887363	-0.45841396
C	1.5875863	-1.483797	-0.4781001
C	3.0112352	-1.4604123	-0.60663176
C	3.771382	-0.2682425	-0.7329519
C	5.1447906	-0.31052282	-0.85380286
C	5.8249373	-1.5283931	-0.8550793
C	5.0998173	-2.7146523	-0.732031
C	3.72795	-2.685568	-0.61063105
H	-9.094522	1.634393	0.31501624
H	-7.8094115	3.7474768	0.09638215
H	-5.370104	3.6953204	-0.11943793
H	-5.4674573	-0.61037153	0.099961385
H	-7.8912654	-0.5334992	0.31337297
H	-3.3296444	2.5479906	-0.24867964
H	-3.3344529	-0.5190964	-0.087472044
H	-1.1014786	1.5764992	-0.39805412
H	-1.0905976	-1.495384	-0.23722196
H	1.1421176	0.60044146	-0.5477881
H	1.1379819	-2.4666924	-0.38664812
H	3.2756927	0.6918885	-0.7351746
H	5.699361	0.61503893	-0.94857264
H	5.617643	-3.665934	-0.7317717
H	3.1782963	-3.6138208	-0.5159609
H	6.9027085	-1.5530025	-0.95029557
34

C	-8.019943	1.6129494	0.21992669
C	-7.29281	2.7964725	0.09680321
C	-5.919864	2.7634902	-0.02451566
C	-5.2082047	1.5382466	-0.028045556
C	-5.9690003	0.34929368	0.09820684
C	-7.342757	0.3936664	0.21900071
C	-3.779571	1.5587991	-0.1569035
C	-2.9288676	0.4771133	-0.17633437
C	-1.526573	0.5800741	-0.30747283
C	-0.66540545	-0.49867025	-0.32782656
C	0.7368786	-0.39566106	-0.45896295
C	1.5877138	-1.4772524	-0.47840968
C	3.0163467	-1.4567306	-0.6072586
C	3.777258	-0.26785696	-0.7334615
C	5.1510243	-0.31235382	-0.8542444
C	5.8281093	-1.5316304	-0.8552067
C	5.1008816	-2.7151186	-0.7321298
C	3.7279541	-2.6820366	-0.6108251
H	-9.097717	1.6397765	0.31504348
H	-7.808013	3.749161	0.09622552
H	-5.3681283	3.6905086	-0.11933847
H	-5.474855	-0.6117612	0.10062948
H	-7.8990884	-0.5307984	0.3138935
H	-3.3301756	2.5418627	-0.24842459
H	-3.336977	-0.522792	-0.08698671
H	-1.1017553	1.5754163	-0.398047
H	-1.0902792	-1.4939913	-0.23724945
H	1.1447849	0.6043379	-0.5482979
H	1.1383989	-2.4603624	-0.38690215
H	3.2832747	0.6932766	-0.7358613
H	5.707377	0.612101	-0.94910127
H	5.616009	-3.6678407	-0.73157984
H	3.176099	-3.6089835	-0.51603836
H	6.905875	-1.5587037	-0.95030427
34

C	-8.02314	1.615942	0.2200689
C	-7.2940063	2.7967696	0.09692443
C	-5.92	2.7599282	-0.02430615
C	-5.213331	1.5345922	-0.0274183
C	-5.9747753	0.3488647	0.09870828
C	-7.348899	0.39532375	0.2194415
C	-3.7797117	1.5524077	-0.1566005
C	-2.9329405	0.47412732	-0.1758053
C	-1.5245667	0.5780062	-0.30756217
C	-0.66733515	-0.4963069	-0.32776007
C	0.7410342	-0.3924485	-0.45951197
C	1.5878414	-1.4707079	-0.47871926
C	3.0214584	-1.4530488	-0.6078854
C	3.7831335	-0.2674714	-0.7339711
C	5.157258	-0.31418484	-0.85468596
C	5.8312807	-1.5348675	-0.8553342
C	5.1019454	-2.715585	-0.7322287
C	3.727958	-2.678505	-0.61101913
H	-9.100911	1.6451598	0.31507075
H	-7.8066144	3.7508452	0.096068904
H	-5.366153	3.6856968	-0.119239
H	-5.4822526	-0.61315095	0.10129758
H	-7.9069114	-0.52809757	0.31441402
H	-3.3307066	2.5357347	-0.24816954
H	-3.3395011	-0.5264875	-0.08650138
H	-1.102032	1.5743335	-0.39803985
H	-1.0899607	-1.4925987	-0.23727694
H	1.1474524	0.60823435	-0.54880774
H	1.1388158	-2.4540327	-0.38715616
H	3.2908566	0.69466466	-0.73654795
H	5.7153935	0.60916305	-0.94962984
H	5.6143756	-3.6697476	-0.7313879
H	3.173902	-3.604146	-0.5161158
H	6.9090424	-1.5644048	-0.950313
34

C	-8.026337	1.6189345	0.2202111
C	-7.2952027	2.7970665	0.097045645
C	-5.9201355	2.756366	-0.024096638
C	-5.2184577	1.5309376	-0.026791047
C	-5.98055	0.3484357	0.09920971
C	-7.355041	0.39698112	0.2198823
C	-3.7798524	1.5460163	-0.15629749
C	-2.9370134	0.47114134	-0.17527625
C	-1.5225604	0.5759383	-0.30765152
C	-0.66926485	-0.49394357	-0.32769358
C	0.7451899	-0.38923594	-0.46006098
C	1.587969	-1.4641633	-0.47902885
C	3.02657	-1.4493672	-0.6085123
C	3.7890093	-0.26708585	-0.73448074
C	5.1634917	-0.31601584	-0.8551275
C	5.834452	-1.5381048	-0.85546166
C	5.1030097	-2.7160513	-0.7323275
C	3.727962	-2.6749732	-0.6112132
H	-9.104106	1.6505433	0.31509802
H	-7.805216	3.7525294	0.09591228
H	-5.364177	3.680885	-0.11913954
H	-5.4896502	-0.61454064	0.10196568
H	-7.9147344	-0.52539676	0.31493455
H	-3.3312378	2.5296068	-0.2479145
H	-3.3420253	-0.53018314	-0.08601605
H	-1.1023086	1.5732508	-0.39803272
H	-1.0896423	-1.4912059	-0.23730443
H	1.1501198	0.6121308	-0.5493176
H	1.1392326	-2.4477026	-0.3874102
H	3.2984385	0.69605273	-0.7372346
H	5.72341	0.6062251	-0.9501585
H	5.612742	-3.6716545	-0.731196
H	3.1717048	-3.5993087	-0.5161932
H	6.912209	-1.570106	-0.9503217
34

C	-8.029532	1.6219271	0.2203533
C	-7.296399	2.7973635	0.097166866
C	-5.9202714	2.752804	-0.023887126
C	-5.2235837	1.5272831	-0.026163792
C	-5.986325	0.34800673	0.09971114
C	-7.3611827	0.39863852	0.2203231
C	-3.7799928	1.539625	-0.15599449
C	-2.941086	0.46815532	-0.1747472
C	-1.520554	0.57387036	-0.3077409
C	-0.6711946	-0.49158022	-0.3276271
C	0.7493456	-0.3860234	-0.46060997
C	1.5880964	-1.4576187	-0.47933847
C	3.0316815	-1.4456854	-0.6091391
C	3.7948852	-0.26670027	-0.73499036
C	5.1697254	-0.31784683	-0.85556906
C	5.837624	-1.5413419	-0.85558915
C	5.1040735	-2.7165174	-0.7324264
C	3.7279658	-2.6714418	-0.6114072
H	-9.1073	1.6559268	0.31512526
H	-7.8038173	3.7542133	0.09575565
H	-5.362202	3.676073	-0.119040065
H	-5.497048	-0.6159303	0.102633774
H	-7.922557	-0.52269596	0.31545505
H	-3.3317688	2.523479	-0.24765944
H	-3.3445492	-0.5338787	-0.08553073
H	-1.1025852	1.5721679	-0.3980256
H	-1.0893238	-1.4898133	-0.23733191
H	1.1527871	0.61602724	-0.5498274
H	1.1396496	-2.4413729	-0.3876642
H	3.3060207	0.69744074	-0.7379213
H	5.7314262	0.60328716	-0.9506871
H	5.611108	-3.673561	-0.7310041
H	3.1695077	-3.5944715	-0.5162707
H	6.9153757	-1.5758072	-0.9503304
34

C	-8.032729	1.6249197	0.2204955
C	-7.2975955	2.7976604	0.09728808
C	-5.920407	2.7492418	-0.023677614
C	-5.22871	1.5236285	-0.025536537
C	-5.9920993	0.34757772	0.100212574
C	-7.367325	0.40029588	0.22076389
C	-3.7801335	1.5332336	-0.15569147
C	-2.945159	0.46516934	-0.17421815
C	-1.5185477	0.57180244	-0.30783024
C	-0.6731243	-0.4892169	-0.3275606
C	0.7535013	-0.38281083	-0.461159
C	1.5882239	-1.4510741	-0.47964805
C	3.0367932	-1.4420037	-0.60976595
C	3.800761	-0.26631472	-0.7355
C	5.175959	-0.31967783	-0.8560106
C	5.8407955	-1.5445791	-0.8557166
C	5.105138	-2.7169838	-0.7325252
C	3.72797	-2.66791	-0.6116013
H	-9.110495	1.6613103	0.31515253
H	-7.8024187	3.7558975	0.095599025
H	-5.3602266	3.6712613	-0.1189406
H	-5.5044456	-0.61732	0.103301875
H	-7.93038	-0.51999515	0.31597558
H	-3.3323	2.5173512	-0.2474044
H	-3.3470733	-0.5375743	-0.0850454
H	-1.1028619	1.5710851	-0.39801848
H	-1.0890054	-1.4884206	-0.2373594
H	1.1554545	0.6199237	-0.55033726
H	1.1400665	-2.4350429	-0.38791823
H	3.3136027	0.6988288	-0.73860794
H	5.739443	0.6003492	-0.95121574
H	5.609474	-3.675468	-0.7308122
H	3.1673105	-3.5896342	-0.5163481
H	6.9185424	-1.5815084	-0.9503391
34

C	-8.035926	1.6279123	0.22063772
C	-7.298792	2.7979574	0.0974093
C	-5.9205427	2.7456799	-0.023468103
C	-5.2338367	1.519974	-0.024909282
C	-5.9978743	0.34714875	0.10071401
C	-7.3734665	0.40195325	0.22120468
C	-3.7802742	1.5268422	-0.15538847
C	-2.9492319	0.46218336	-0.17368908
C	-1.5165414	0.5697346	-0.3079196
C	-0.675054	-0.48685354	-0.3274941
C	0.75765693	-0.3795983	-0.461708
C	1.5883515	-1.4445297	-0.47995764
C	3.041905	-1.438322	-0.61039275
C	3.8066366	-0.26592916	-0.7360096
C	5.182193	-0.32150885	-0.85645217
C	5.843967	-1.5478163	-0.8558441
C	5.1062016	-2.7174501	-0.7326241
C	3.7279737	-2.6643784	-0.6117953
H	-9.113688	1.6666937	0.3151798
H	-7.80102	3.7575817	0.09544241
H	-5.358251	3.6664495	-0.118841134
H	-5.511843	-0.61870974	0.10396998
H	-7.938203	-0.51729435	0.3164961
H	-3.332831	2.511223	-0.24714935
H	-3.3495975	-0.54126984	-0.08456007
H	-1.1031386	1.5700023	-0.39801133
H	-1.0886868	-1.487028	-0.2373869
H	1.158122	0.6238202	-0.5508471
H	1.1404834	-2.428713	-0.38817224
H	3.3211846	0.7002169	-0.7392946
H	5.7474594	0.5974112	-0.9517443
H	5.6078405	-3.6773748	-0.73062027
H	3.1651134	-3.5847967	-0.51642555
H	6.9217095	-1.5872096	-0.9503478
34

C	-8.039122	1.6309048	0.22077993
C	-7.2999883	2.7982543	0.097530514
C	-5.920678	2.7421176	-0.023258591
C	-5.2389627	1.5163194	-0.024282027
C	-6.0036488	0.34671974	0.101215445
C	-7.3796086	0.40361062	0.22164549
C	-3.7804148	1.520451	-0.15508546
C	-2.9533045	0.45919734	-0.17316003
C	-1.5145351	0.56766665	-0.30800897
C	-0.6769837	-0.48449022	-0.32742763
C	0.7618126	-0.37638572	-0.462257
C	1.588479	-1.4379851	-0.48026723
C	3.0470164	-1.4346403	-0.6110196
C	3.8125124	-0.2655436	-0.7365192
C	5.1884265	-0.32333985	-0.8568937
C	5.847139	-1.5510535	-0.8559715
C	5.107266	-2.7179165	-0.73272294
C	3.7279778	-2.660847	-0.6119894
H	-9.116883	1.6720772	0.31520703
H	-7.7996216	3.759266	0.09528578
H	-5.3562756	3.6616378	-0.11874167
H	-5.519241	-0.6200994	0.10463807
H	-7.946026	-0.51459354	0.31701663
H	-3.333362	2.5050952	-0.2468943
H	-3.3521216	-0.54496545	-0.084074736
H	-1.1034153	1.5689194	-0.3980042
H	-1.0883684	-1.4856353	-0.23741439
H	1.1607893	0.6277166	-0.5513569
H	1.1409004	-2.422383	-0.38842627
H	3.3287666	0.70160496	-0.7399813
H	5.7554755	0.5944733	-0.95227295
H	5.606207	-3.6792815	-0.7304284
H	3.1629162	-3.5799594	-0.51650304
H	6.924876	-1.5929108	-0.9503565
34

C	-8.042318	1.6338974	0.22092213
C	-7.3011847	2.7985513	0.097651735
C	-5.920814	2.7385557	-0.023049079
C	-5.244089	1.5126649	-0.023654772
C	-6.0094237	0.34629077	0.101716876
C	-7.3857503	0.40526798	0.22208628
C	-3.7805555	1.5140595	-0.15478246
C	-2.9573774	0.45621136	-0.17263098
C	-1.5125288	0.5655987	-0.30809832
C	-0.6789134	-0.48212686	-0.32736114
C	0.7659683	-0.37317318	-0.46280602
C	1.5886066	-1.4314405	-0.4805768
C	3.052128	-1.4309585	-0.6116464
C	3.8183882	-0.26515806	-0.73702884
C	5.19466	-0.32517084	-0.85733527
C	5.8503103	-1.5542907	-0.856099
C	5.10833	-2.7183828	-0.7328218
C	3.7279816	-2.6573153	-0.6121834
H	-9.120077	1.6774607	0.3152343
H	-7.798223	3.76095	0.095129155
H	-5.3543	3.656826	-0.1186422
H	-5.5266385	-0.6214891	0.10530617
H	-7.953849	-0.51189274	0.31753716
H	-3.333893	2.4989674	-0.24663925
H	-3.3546457	-0.548661	-0.083589405
H	-1.1036919	1.5678366	-0.39799708
H	-1.0880499	-1.4842427	-0.23744188
H	1.1634567	0.6316131	-0.55186677
H	1.1413172	-2.4160533	-0.38868028
H	3.3363485	0.70299304	-0.74066794
H	5.763492	0.59153533	-0.9528016
H	5.6045732	-3.6811883	-0.7302365
H	3.1607192	-3.575122	-0.51658046
H	6.928043	-1.598612	-0.9503652
